/*--------------------------------*- C++ -*----------------------------------*\
  =========                 |
  \\      /  F ield         | OpenFOAM: The Open Source CFD Toolbox
   \\    /   O peration     | Website:  https://openfoam.org
    \\  /    A nd           | Version:  8
     \\/     M anipulation  |
\*---------------------------------------------------------------------------*/
FoamFile
{
    version     2.0;
    format      ascii;
    class       dictionary;
    location    "constant";
    object      thermophysicalProperties;
}
// * * * * * * * * * * * * * * * * * * * * * * * * * * * * * * * * * * * * * //

thermoType
{
    type            hePsiThermo;
    mixture         multiComponentMixture;
    transport       const;
    thermo          hConst;
    energy          sensibleEnthalpy;
    equationOfState perfectGas;
    specie          specie;
}

inertSpecie H2O;

solveEnergy true;

#include "thermo.compressibleGas";

// ************************************************************************* //
